OPT_V10/Two_days_MYC3/powerflow_results_t27.txt
Pandapower Network Debug Info
==================================================

BUS:
       vm_pu  va_degree      p_mw    q_mvar
0   0.992656   0.123206  0.001030  0.000869
1   0.987888   0.191278  0.001653  0.001625
2   0.983275   0.278427  0.002326  0.003447
3   0.988801   0.221029  0.002332  0.004328
4   0.999894   0.000632  0.008681  0.010143
5   0.999882   0.000628  0.009549  0.007584
6   0.999872   0.000618  0.012251  0.009189
7   0.999934   0.000493  0.000000  0.000000
8   0.999933   0.000499  0.000000  0.000000
9   1.000000   0.000000 -0.037981 -0.042293
10  1.000000   0.000006  0.000000  0.000000
--------------------------------------------------

LINE:
   p_from_mw  q_from_mvar   p_to_mw  q_to_mvar         pl_mw       ql_mvar  i_from_ka   i_to_ka      i_ka  vm_from_pu  va_from_degree  vm_to_pu  va_to_degree  loading_percent
0   0.037971     0.038293 -0.037969  -0.038291  2.844617e-06  2.217995e-06   0.002076  0.002076  0.002076    1.000000        0.000006  0.999934      0.000493         0.902471
1   0.030483     0.026918 -0.030482  -0.026917  1.278998e-06  9.972562e-07   0.001565  0.001565  0.001565    0.999934        0.000493  0.999894      0.000632         0.680591
2   0.007476     0.010374 -0.007399  -0.010314  7.648222e-05  5.963445e-05   0.018457  0.018457  0.018457    0.999933        0.000499  0.992656      0.123206         8.024880
3  -0.021800    -0.016773  0.021800   0.016773  2.617028e-07  2.040539e-07   0.001059  0.001059  0.001059    0.999882        0.000628  0.999894      0.000632         0.460360
4  -0.012251    -0.009189  0.012251   0.009189  1.147258e-07  8.945359e-08   0.000590  0.000590  0.000590    0.999872        0.000618  0.999882      0.000628         0.256311
5  -0.003995    -0.005084  0.004021   0.005104  2.534747e-05  1.976384e-05   0.009448  0.009448  0.009448    0.987888        0.191278  0.992656      0.123206         4.107671
6  -0.002332    -0.004328  0.002348   0.004341  1.650416e-05  1.286856e-05   0.007176  0.007176  0.007176    0.988801        0.221029  0.992656      0.123206         3.120057
7  -0.002326    -0.003447  0.002342   0.003460  1.617832e-05  1.261450e-05   0.006104  0.006104  0.006104    0.983275        0.278427  0.987888      0.191278         2.653942
--------------------------------------------------

TRAFO:
    p_hv_mw  q_hv_mvar   p_lv_mw  q_lv_mvar    pl_mw  ql_mvar   i_hv_ka   i_lv_ka  vm_hv_pu  va_hv_degree  vm_lv_pu  va_lv_degree  loading_percent
0  0.007486   0.011374 -0.007476  -0.010374  0.00001    0.001  0.000524  0.018457  0.999934      0.000493  0.999933      0.000499         0.136168
1  0.037981   0.042293 -0.037971  -0.038293  0.00001    0.004  0.000469  0.002076  1.000000      0.000000  1.000000      0.000006         0.142112
--------------------------------------------------
